# Packages
 &PACKAGES
 useOBCS=.false.,
 usePtracers=.false.,
 useRBCS=.false.,
 &
